LTspice 24.0.12 for Windows
Circuit: * D:\LTspice_Project\Class A Transistor Amplifier.asc
Start Time: Thu Feb 13 11:52:17 2025
Warning: Multiple definitions of model "2scr375p" Type: BJT
Warning: Multiple definitions of model "bc857b" Type: BJT
Warning: Multiple definitions of model "bc847c" Type: BJT
Warning: Multiple definitions of model "bc847b" Type: BJT
solver = Normal
Maximum thread count: 8
tnom = 27
temp = 27
method = modified trap
WARNING: Node VOUT is floating.

WARNING: Less than two connections to node vout.  This node is used by c3.
Direct Newton iteration for .op point succeeded.
Total elapsed time: 0.489 seconds.

